@<TRIPOS>MOLECULE
ATP
50 52 1 0 0 
SMALL
USER_CHARGES


@<TRIPOS>ATOM
  1 C      103.8930    80.5760    74.0270 C.3   1 ATP   0.0000 
  2 H      104.0653    80.8340    75.0719 H     1 ATP   0.0000 
  3 O      103.7940    79.1500    73.8250 O.3   1 ATP   0.0000 
  4 C      105.0570    81.0240    73.1170 C.3   1 ATP   0.0000 
  5 H      104.7134    81.4334    72.1670 H     1 ATP   0.0000 
  6 C      105.9110    79.7460    72.9410 C.3   1 ATP   0.0000 
  7 H      106.0338    79.4591    71.8966 H     1 ATP   0.0000 
  8 C      105.1570    78.6780    73.7640 C.3   1 ATP   0.0000 
  9 H      105.5889    78.5413    74.7554 H     1 ATP   0.0000 
 10 C      102.5920    81.2650    73.6110 C.3   1 ATP   0.0000 
 11 H1     102.7692    82.3337    73.4902 H     1 ATP   0.0000 
 12 H2     101.8352    81.1068    74.3793 H     1 ATP   0.0000 
 13 O      102.1370    80.7150    72.3740 O.3   1 ATP   0.0000 
 14 P      100.8490    79.8110    72.7110 P.3   1 ATP   0.0000 
 15 O      100.6860    79.7140    74.1790 O.2   1 ATP   0.0000 
 16 O       99.5370    80.4850    72.0680 O.3   1 ATP   0.0000 
 17 H       99.0160    79.7690    71.6810 H     1 ATP   0.0000 
 18 O      101.0510    78.3370    72.0960 O.3   1 ATP   0.0000 
 19 P      100.2220    78.2900    70.7170 P.3   1 ATP   0.0000 
 20 O      100.6360    77.1050    69.9340 O.2   1 ATP   0.0000 
 21 O      100.5150    79.6240    69.8670 O.3   1 ATP   0.0000 
 22 H      100.8920    80.2690    70.4820 H     1 ATP   0.0000 
 23 O       98.6480    78.1960    71.0410 O.3   1 ATP   0.0000 
 24 P       98.4630    77.0020    72.1060 P.3   1 ATP   0.0000 
 25 O       99.3160    77.2570    73.2870 O.2   1 ATP   0.0000 
 26 O       96.9210    76.9270    72.5650 O.3   1 ATP   0.0000 
 27 H       96.5600    76.1080    72.1980 H     1 ATP   0.0000 
 28 O       98.8880    75.6070    71.4270 O.3   1 ATP   0.0000 
 29 H       99.2950    75.8220    70.5760 H     1 ATP   0.0000 
 30 O      105.8200    82.0540    73.7490 O.3   1 ATP   0.0000 
 31 H      106.3160    81.6360    74.4650 H     1 ATP   0.0000 
 32 N      105.2190    77.3790    73.0920 N.pl3 1 ATP   0.0000 
 33 C      106.3420    76.7700    72.6160 C.cat 1 ATP   1.0000 
 34 H      107.3404    77.1774    72.6760 H     1 ATP   0.0000 
 35 N      106.0340    75.6260    72.0790 N.pl3 1 ATP   0.0000 
 36 C      104.6980    75.4240    72.1830 C.ar  1 ATP   0.0000 
 37 H      106.6950    74.9810    71.6470 H     1 ATP   0.0000 
 38 C      103.8190    74.4030    71.7860 C.ar  1 ATP   0.0000 
 39 C      104.1590    76.5490    72.8290 C.ar  1 ATP   0.0000 
 40 N      102.5240    74.5420    72.0510 N.ar  1 ATP   1.0000 
 41 C      102.0640    75.6160    72.6660 C.ar  1 ATP   0.0000 
 42 H      101.0043    75.6899    72.8607 H     1 ATP   0.0000 
 43 H      101.8740    73.8060    71.7740 H     1 ATP   0.0000 
 44 N      102.8500    76.6010    73.0510 N.ar  1 ATP   1.0000 
 45 H      102.4490    77.4110    73.5240 H     1 ATP   0.0000 
 46 N      104.2910    73.2740    71.1400 N.pl3 1 ATP   0.0000 
 47 H      105.2460    73.1390    71.0320 H     1 ATP   0.0000 
 48 H      103.6680    72.6150    70.7970 H     1 ATP   0.0000 
 49 O      107.2280    79.9490    73.4570 O.3   1 ATP   0.0000 
 50 H      107.2750    80.8690    73.7510 H     1 ATP   0.0000 
@<TRIPOS>BOND
  1   1   2  1   
  2   1   3  1   
  3   1   4  1   
  4   1  10  1   
  5   3   8  1   
  6   4   5  1   
  7   4   6  1   
  8   4  30  1   
  9   6   7  1   
 10   6   8  1   
 11   6  49  1   
 12   8   9  1   
 13   8  32  1   
 14  10  11  1   
 15  10  12  1   
 16  10  13  1   
 17  13  14  1   
 18  14  15  2   
 19  14  16  1   
 20  14  18  1   
 21  16  17  1   
 22  18  19  1   
 23  19  20  2   
 24  19  21  1   
 25  19  23  1   
 26  21  22  1   
 27  23  24  1   
 28  24  25  2   
 29  24  26  1   
 30  24  28  1   
 31  26  27  1   
 32  28  29  1   
 33  30  31  1   
 34  32  33  ar  
 35  32  39  1   
 36  33  34  1   
 37  33  35  ar  
 38  35  36  1   
 39  35  37  1   
 40  36  38  ar  
 41  36  39  ar  
 42  38  40  ar  
 43  38  46  1   
 44  39  44  ar  
 45  40  41  ar  
 46  40  43  1   
 47  41  42  1   
 48  41  44  ar  
 49  44  45  1   
 50  46  47  1   
 51  46  48  1   
 52  49  50  1   
@<TRIPOS>SUBSTRUCTURE
  1 ATP  44 GROUP 4 B **** 0

# MOE 2019.01 (io_trps.svl 2018.10)
